Circuit: * C:\Documents and Settings\student\Рабочий стол\Алексеева Сухоруков\САПР\Draft2.asc

WARNING: Less than two connections to node N007.  This node is used by A5.
WARNING: Less than two connections to node N012.  This node is used by A6.
WARNING: Less than two connections to node N014.  This node is used by A7.
WARNING: Less than two connections to node N016.  This node is used by A8.
Direct Newton iteration for .op point succeeded.

Date: Wed Oct 06 01:22:18 2010
Total elapsed time: 0.203 seconds.

tnom = 27
temp = 27
method = modified trap
totiter = 3763
traniter = 3733
tranpoints = 1640
accept = 1506
rejected = 134
matrix size = 21
fillins = 0
solver = Normal
Matrix Compiler1: 500 bytes object code size  0.4/0.4/[0.3]
Matrix Compiler2: off  [0.3]/0.6/1.8


